
 OpenBabel05082414303D

 27 27  0  0  1  0  0  0  0  0999 V2000
    2.8543    0.5295   -1.5194 C   0  0  0  0  0  0  0  0  0  0  0  0
    2.4133    0.1153   -0.1212 C   0  0  0  0  0  0  0  0  0  0  0  0
    3.0217    1.0019    0.9858 C   0  0  3  0  0  0  0  0  0  0  0  0
    2.5255    0.5869    2.3754 C   0  0  0  0  0  0  0  0  0  0  0  0
    4.4966    1.0718    0.9581 N   0  0  0  0  0  0  0  0  0  0  0  0
    5.2362   -0.0941    1.0445 C   0  0  0  0  0  0  0  0  0  0  0  0
    4.7724   -1.2277    1.1387 O   0  0  0  0  0  0  0  0  0  0  0  0
    6.5934    0.0509    1.0320 N   0  0  0  0  0  0  0  0  0  0  0  0
    7.2649    1.2425    0.9911 C   0  0  0  0  0  0  0  0  0  0  0  0
    8.7653    1.1542    0.9867 C   0  0  0  0  0  0  0  0  0  0  0  0
    6.5780    2.3967    0.9740 C   0  0  0  0  0  0  0  0  0  0  0  0
    7.3801    4.0879    0.9453 Br  0  0  0  0  0  0  0  0  0  0  0  0
    5.0809    2.3361    1.0002 C   0  0  0  0  0  0  0  0  0  0  0  0
    4.4246    3.3775    1.0652 O   0  0  0  0  0  0  0  0  0  0  0  0
    2.4008   -0.1286   -2.2676 H   0  0  0  0  0  0  0  0  0  0  0  0
    3.9406    0.4642   -1.6371 H   0  0  0  0  0  0  0  0  0  0  0  0
    2.5456    1.5562   -1.7400 H   0  0  0  0  0  0  0  0  0  0  0  0
    2.6556   -0.9411    0.0317 H   0  0  0  0  0  0  0  0  0  0  0  0
    1.3191    0.1843   -0.0698 H   0  0  0  0  0  0  0  0  0  0  0  0
    2.6233    2.0090    0.8109 H   0  0  0  0  0  0  0  0  0  0  0  0
    2.8044   -0.4425    2.6207 H   0  0  0  0  0  0  0  0  0  0  0  0
    1.4353    0.6631    2.4385 H   0  0  0  0  0  0  0  0  0  0  0  0
    2.9539    1.2374    3.1463 H   0  0  0  0  0  0  0  0  0  0  0  0
    7.1016   -0.8265    1.0756 H   0  0  0  0  0  0  0  0  0  0  0  0
    9.1110    0.1145    0.9840 H   0  0  0  0  0  0  0  0  0  0  0  0
    9.1830    1.6302    1.8799 H   0  0  0  0  0  0  0  0  0  0  0  0
    9.1819    1.6329    0.0943 H   0  0  0  0  0  0  0  0  0  0  0  0
  1  2  1  0  0  0  0
  1 15  1  0  0  0  0
  1 16  1  0  0  0  0
  1 17  1  0  0  0  0
  2  3  1  0  0  0  0
  2 18  1  0  0  0  0
  2 19  1  0  0  0  0
  3  4  1  0  0  0  0
  3  5  1  0  0  0  0
  3 20  1  0  0  0  0
  4 21  1  0  0  0  0
  4 22  1  0  0  0  0
  4 23  1  0  0  0  0
  5  6  1  0  0  0  0
  5 13  1  0  0  0  0
  6  7  2  0  0  0  0
  6  8  1  0  0  0  0
  8  9  1  0  0  0  0
  8 24  1  0  0  0  0
  9 10  1  0  0  0  0
  9 11  2  0  0  0  0
 10 25  1  0  0  0  0
 10 26  1  0  0  0  0
 10 27  1  0  0  0  0
 11 12  1  0  0  0  0
 11 13  1  0  0  0  0
 13 14  2  0  0  0  0
M  END
