
 OpenBabel05082414303D

 31 32  0  0  0  0  0  0  0  0999 V2000
    2.6993    0.9267    0.3295 O   0  0  0  0  0  0  0  0  0  0  0  0
    2.1776   -0.1041   -0.0876 C   0  0  0  0  0  0  0  0  0  0  0  0
    0.6691   -0.2670   -0.1548 C   0  0  0  0  0  0  0  0  0  0  0  0
    0.0266    0.7450   -0.9781 N   0  0  0  0  0  0  0  0  0  0  0  0
   -0.5497    1.8933   -0.4777 C   0  0  0  0  0  0  0  0  0  0  0  0
   -1.1369    2.5166   -1.5538 C   0  0  0  0  0  0  0  0  0  0  0  0
   -0.9459    1.7883   -2.6972 N   0  0  0  0  0  0  0  0  0  0  0  0
   -0.2283    0.7427   -2.3272 C   0  0  0  0  0  0  0  0  0  0  0  0
    0.2173   -0.2610   -3.2595 N   0  0  0  0  0  0  0  0  0  0  0  0
    0.9087   -1.1908   -2.8120 O   0  0  0  0  0  0  0  0  0  0  0  0
   -0.1175   -0.1338   -4.4432 O   0  0  0  0  0  0  0  0  0  0  0  0
    2.8979   -1.2059   -0.4916 N   0  0  0  0  0  0  0  0  0  0  0  0
    4.3472   -1.2417   -0.4865 C   0  0  0  0  0  0  0  0  0  0  0  0
    4.8628   -2.4047    0.3243 C   0  0  0  0  0  0  0  0  0  0  0  0
    5.0283   -3.6712   -0.2567 C   0  0  0  0  0  0  0  0  0  0  0  0
    5.5103   -4.7436    0.4978 C   0  0  0  0  0  0  0  0  0  0  0  0
    5.8257   -4.5650    1.8446 C   0  0  0  0  0  0  0  0  0  0  0  0
    5.6579   -3.3141    2.4357 C   0  0  0  0  0  0  0  0  0  0  0  0
    5.1774   -2.2403    1.6817 C   0  0  0  0  0  0  0  0  0  0  0  0
    0.2760   -0.1705    0.8645 H   0  0  0  0  0  0  0  0  0  0  0  0
    0.3644   -1.2571   -0.5028 H   0  0  0  0  0  0  0  0  0  0  0  0
   -0.4878    2.1663    0.5675 H   0  0  0  0  0  0  0  0  0  0  0  0
   -1.6899    3.4483   -1.5644 H   0  0  0  0  0  0  0  0  0  0  0  0
    2.4273   -1.9517   -0.9911 H   0  0  0  0  0  0  0  0  0  0  0  0
    4.7659   -0.3011   -0.1129 H   0  0  0  0  0  0  0  0  0  0  0  0
    4.6730   -1.3422   -1.5283 H   0  0  0  0  0  0  0  0  0  0  0  0
    4.7953   -3.8296   -1.3072 H   0  0  0  0  0  0  0  0  0  0  0  0
    5.6463   -5.7177    0.0365 H   0  0  0  0  0  0  0  0  0  0  0  0
    6.2046   -5.3981    2.4311 H   0  0  0  0  0  0  0  0  0  0  0  0
    5.9075   -3.1715    3.4838 H   0  0  0  0  0  0  0  0  0  0  0  0
    5.0600   -1.2685    2.1572 H   0  0  0  0  0  0  0  0  0  0  0  0
  1  2  2  0  0  0  0
  2  3  1  0  0  0  0
  2 12  1  0  0  0  0
  3  4  1  0  0  0  0
  3 20  1  0  0  0  0
  3 21  1  0  0  0  0
  4  5  1  0  0  0  0
  4  8  1  0  0  0  0
  5  6  2  0  0  0  0
  5 22  1  0  0  0  0
  6  7  1  0  0  0  0
  6 23  1  0  0  0  0
  7  8  2  0  0  0  0
  8  9  1  0  0  0  0
  9 10  2  0  0  0  0
  9 11  2  0  0  0  0
 12 13  1  0  0  0  0
 12 24  1  0  0  0  0
 13 14  1  0  0  0  0
 13 25  1  0  0  0  0
 13 26  1  0  0  0  0
 14 15  1  0  0  0  0
 14 19  2  0  0  0  0
 15 16  2  0  0  0  0
 15 27  1  0  0  0  0
 16 17  1  0  0  0  0
 16 28  1  0  0  0  0
 17 18  2  0  0  0  0
 17 29  1  0  0  0  0
 18 19  1  0  0  0  0
 18 30  1  0  0  0  0
 19 31  1  0  0  0  0
M  END
