
 OpenBabel11272311253D
Schrodinger Suite 2023-3.
 12 11  0  0  1  0  0  0  0  0999 V2000
   -0.5000    1.4142    0.0000 C   0  0  0  0  0  0  0  0  0  0  0  0
    0.0000    0.0000    0.0000 C   0  0  0  0  0  0  0  0  0  0  0  0
    1.5000    0.0000    0.0000 C   0  0  0  0  0  0  0  0  0  0  0  0
    1.9600   -1.3011    0.0000 O   0  0  0  0  0  0  0  0  0  0  0  0
   -1.5900    1.4142    0.0000 H   0  0  0  0  0  0  0  0  0  0  0  0
   -0.1367    1.9280    0.8900 H   0  0  0  0  0  0  0  0  0  0  0  0
   -0.1367    1.9280   -0.8900 H   0  0  0  0  0  0  0  0  0  0  0  0
   -0.3633   -0.5138   -0.8900 H   0  0  0  0  0  0  0  0  0  0  0  0
   -0.3633   -0.5138    0.8900 H   0  0  0  0  0  0  0  0  0  0  0  0
    1.8633    0.5138    0.8900 H   0  0  0  0  0  0  0  0  0  0  0  0
    1.8633    0.5138   -0.8900 H   0  0  0  0  0  0  0  0  0  0  0  0
    2.9553   -1.3974    0.0000 H   0  0  0  0  0  0  0  0  0  0  0  0
  1  2  1  0  0  0  0
  1  5  1  0  0  0  0
  1  6  1  0  0  0  0
  1  7  1  0  0  0  0
  2  3  1  0  0  0  0
  2  8  1  0  0  0  0
  2  9  1  0  0  0  0
  3  4  1  0  0  0  0
  3 10  1  0  0  0  0
  3 11  1  0  0  0  0
  4 12  1  0  0  0  0
M  END
