
 OpenBabel11272311253D
Schrodinger Suite 2023-3.
 15 14  0  0  1  0  0  0  0  0999 V2000
   -0.4613    1.4677   -0.0000 C   0  0  0  0  0  0  0  0  0  0  0  0
    0.0000    0.0000    0.0000 C   0  0  0  0  0  0  0  0  0  0  0  0
   -0.4613   -0.7338    1.2710 C   0  0  0  0  0  0  0  0  0  0  0  0
   -0.4613   -0.7338   -1.2710 C   0  0  0  0  0  0  0  0  0  0  0  0
    1.3800    0.0000    0.0000 O   0  0  0  0  0  0  0  0  0  0  0  0
   -0.0922    1.9981   -0.8786 H   0  0  0  0  0  0  0  0  0  0  0  0
   -1.5494    1.5443    0.0000 H   0  0  0  0  0  0  0  0  0  0  0  0
   -0.0922    1.9981    0.8786 H   0  0  0  0  0  0  0  0  0  0  0  0
   -0.0922   -1.7599    1.2911 H   0  0  0  0  0  0  0  0  0  0  0  0
   -0.0922   -0.2382    2.1697 H   0  0  0  0  0  0  0  0  0  0  0  0
   -1.5494   -0.7722    1.3374 H   0  0  0  0  0  0  0  0  0  0  0  0
   -0.0922   -1.7599   -1.2911 H   0  0  0  0  0  0  0  0  0  0  0  0
   -1.5494   -0.7722   -1.3374 H   0  0  0  0  0  0  0  0  0  0  0  0
   -0.0922   -0.2382   -2.1697 H   0  0  0  0  0  0  0  0  0  0  0  0
    1.8026   -0.9063   -0.0000 H   0  0  0  0  0  0  0  0  0  0  0  0
  1  2  1  0  0  0  0
  1  6  1  0  0  0  0
  1  7  1  0  0  0  0
  1  8  1  0  0  0  0
  2  3  1  0  0  0  0
  2  4  1  0  0  0  0
  2  5  1  0  0  0  0
  3  9  1  0  0  0  0
  3 10  1  0  0  0  0
  3 11  1  0  0  0  0
  4 12  1  0  0  0  0
  4 13  1  0  0  0  0
  4 14  1  0  0  0  0
  5 15  1  0  0  0  0
M  END
