
 OpenBabel05082414303D

 14 15  0  0  0  0  0  0  0  0999 V2000
    2.5836   -0.4145    0.0015 C   0  0  0  0  0  0  0  0  0  0  0  0
    2.3476    0.9568   -0.0049 C   0  0  0  0  0  0  0  0  0  0  0  0
    1.0425    1.4596   -0.0070 C   0  0  0  0  0  0  0  0  0  0  0  0
   -0.0234    0.5441   -0.0060 C   0  0  0  0  0  0  0  0  0  0  0  0
   -1.7200    0.8493   -0.0109 S   0  0  0  0  0  0  0  0  0  0  0  0
   -2.0133   -0.8370   -0.0147 C   0  0  0  0  0  0  0  0  0  0  0  0
   -0.9567   -1.6165   -0.0058 N   0  0  0  0  0  0  0  0  0  0  0  0
    0.1897   -0.8373   -0.0017 C   0  0  0  0  0  0  0  0  0  0  0  0
    1.5152   -1.3175    0.0043 C   0  0  0  0  0  0  0  0  0  0  0  0
    3.6041   -0.7901    0.0038 H   0  0  0  0  0  0  0  0  0  0  0  0
    3.1875    1.6480   -0.0084 H   0  0  0  0  0  0  0  0  0  0  0  0
    0.8595    2.5297   -0.0111 H   0  0  0  0  0  0  0  0  0  0  0  0
   -3.0201   -1.2336   -0.0238 H   0  0  0  0  0  0  0  0  0  0  0  0
    1.6946   -2.3880    0.0090 H   0  0  0  0  0  0  0  0  0  0  0  0
  1  2  1  0  0  0  0
  1  9  2  0  0  0  0
  1 10  1  0  0  0  0
  2  3  2  0  0  0  0
  2 11  1  0  0  0  0
  3  4  1  0  0  0  0
  3 12  1  0  0  0  0
  4  5  1  0  0  0  0
  4  8  2  0  0  0  0
  5  6  1  0  0  0  0
  6  7  2  0  0  0  0
  6 13  1  0  0  0  0
  7  8  1  0  0  0  0
  8  9  1  0  0  0  0
  9 14  1  0  0  0  0
M  END
