
 OpenBabel05082414303D

 27 31  0  0  1  0  0  0  0  0999 V2000
    1.3199   -0.7301   -0.0844 Cl  0  0  0  0  0  0  0  0  0  0  0  0
    2.8289    0.0417   -0.1004 C   0  0  0  0  0  0  0  0  0  0  0  0
    3.2596    0.9915   -0.9466 C   0  0  0  0  0  0  0  0  0  0  0  0
    2.3940    1.7282   -2.2047 Cl  0  0  0  0  0  0  0  0  0  0  0  0
    4.6409    1.4218   -0.5013 C   0  0  3  0  0  0  0  0  0  0  0  0
    5.1582    3.0366   -0.9482 Cl  0  0  0  0  0  0  0  0  0  0  0  0
    5.7146    0.3373   -0.7116 C   0  0  3  0  0  0  0  0  0  0  0  0
    6.7435   -0.3187   -1.6664 C   0  0  3  0  0  0  0  0  0  0  0  0
    6.3053   -1.8074   -1.7893 C   0  0  0  0  0  0  0  0  0  0  0  0
    6.1101   -1.9951   -0.2244 C   0  0  3  0  0  0  0  0  0  0  0  0
    7.5357   -1.6864    0.1990 C   0  0  3  0  0  0  0  0  0  0  0  0
    7.9340   -0.4007    0.6231 O   0  0  0  0  0  0  0  0  0  0  0  0
    8.0048   -0.6154   -0.7896 C   0  0  3  0  0  0  0  0  0  0  0  0
    5.0315   -0.9128   -0.1093 C   0  0  3  0  0  0  0  0  0  0  0  0
    3.9903   -0.2938    0.8673 C   0  0  3  0  0  0  0  0  0  0  0  0
    3.6084   -1.2768    2.2498 Cl  0  0  0  0  0  0  0  0  0  0  0  0
    4.4155    1.1937    1.0894 C   0  0  0  0  0  0  0  0  0  0  0  0
    5.8234    1.3759    2.2005 Cl  0  0  0  0  0  0  0  0  0  0  0  0
    3.1426    2.2611    1.8354 Cl  0  0  0  0  0  0  0  0  0  0  0  0
    6.4359    0.8221   -0.0652 H   0  0  0  0  0  0  0  0  0  0  0  0
    6.9593    0.2028   -2.6003 H   0  0  0  0  0  0  0  0  0  0  0  0
    7.0990   -2.4578   -2.1846 H   0  0  0  0  0  0  0  0  0  0  0  0
    5.4068   -1.9544   -2.3974 H   0  0  0  0  0  0  0  0  0  0  0  0
    5.7796   -3.0023    0.0396 H   0  0  0  0  0  0  0  0  0  0  0  0
    8.1696   -2.5421    0.3804 H   0  0  0  0  0  0  0  0  0  0  0  0
    8.9461   -0.7409   -1.3004 H   0  0  0  0  0  0  0  0  0  0  0  0
    4.3362   -1.3573   -0.8473 H   0  0  0  0  0  0  0  0  0  0  0  0
  1  2  1  0  0  0  0
  2  3  2  0  0  0  0
  2 15  1  0  0  0  0
  3  4  1  0  0  0  0
  3  5  1  0  0  0  0
  5  6  1  0  0  0  0
  5  7  1  0  0  0  0
  5 17  1  0  0  0  0
  7  8  1  0  0  0  0
  7 14  1  0  0  0  0
  7 20  1  0  0  0  0
  8  9  1  0  0  0  0
  8 13  1  0  0  0  0
  8 21  1  0  0  0  0
  9 10  1  0  0  0  0
  9 22  1  0  0  0  0
  9 23  1  0  0  0  0
 10 11  1  0  0  0  0
 10 14  1  0  0  0  0
 10 24  1  0  0  0  0
 11 12  1  0  0  0  0
 11 13  1  0  0  0  0
 11 25  1  0  0  0  0
 12 13  1  0  0  0  0
 13 26  1  0  0  0  0
 14 15  1  0  0  0  0
 14 27  1  0  0  0  0
 15 16  1  0  0  0  0
 15 17  1  0  0  0  0
 17 18  1  0  0  0  0
 17 19  1  0  0  0  0
M  END
