
 OpenBabel05082414303D

 23 24  0  0  0  0  0  0  0  0999 V2000
    2.4135    0.7436   -0.0241 C   0  0  0  0  0  0  0  0  0  0  0  0
    2.4211   -0.6509   -0.0606 C   0  0  0  0  0  0  0  0  0  0  0  0
    3.7083   -1.4181   -0.1224 C   0  0  0  0  0  0  0  0  0  0  0  0
    1.1969   -1.3393   -0.0459 C   0  0  0  0  0  0  0  0  0  0  0  0
   -0.0248   -0.6772   -0.0137 C   0  0  0  0  0  0  0  0  0  0  0  0
   -1.1674   -1.3892   -0.0103 N   0  0  0  0  0  0  0  0  0  0  0  0
   -2.3475   -0.7244    0.0072 C   0  0  0  0  0  0  0  0  0  0  0  0
   -3.5990   -1.5498   -0.0035 C   0  0  0  0  0  0  0  0  0  0  0  0
   -2.4281    0.6614    0.0109 C   0  0  0  0  0  0  0  0  0  0  0  0
   -1.2473    1.3945    0.0161 C   0  0  0  0  0  0  0  0  0  0  0  0
   -0.0156    0.7314    0.0059 C   0  0  0  0  0  0  0  0  0  0  0  0
    1.2019    1.4328    0.0090 C   0  0  0  0  0  0  0  0  0  0  0  0
    3.3458    1.3036   -0.0272 H   0  0  0  0  0  0  0  0  0  0  0  0
    4.5736   -0.7478   -0.1550 H   0  0  0  0  0  0  0  0  0  0  0  0
    3.7329   -2.0380   -1.0247 H   0  0  0  0  0  0  0  0  0  0  0  0
    3.8105   -2.0590    0.7588 H   0  0  0  0  0  0  0  0  0  0  0  0
    1.1891   -2.4273   -0.0673 H   0  0  0  0  0  0  0  0  0  0  0  0
   -3.3676   -2.6107    0.1355 H   0  0  0  0  0  0  0  0  0  0  0  0
   -4.1179   -1.4329   -0.9599 H   0  0  0  0  0  0  0  0  0  0  0  0
   -4.2665   -1.2411    0.8076 H   0  0  0  0  0  0  0  0  0  0  0  0
   -3.3885    1.1653    0.0109 H   0  0  0  0  0  0  0  0  0  0  0  0
   -1.2933    2.4808    0.0230 H   0  0  0  0  0  0  0  0  0  0  0  0
    1.2120    2.5198    0.0315 H   0  0  0  0  0  0  0  0  0  0  0  0
  1  2  1  0  0  0  0
  1 12  2  0  0  0  0
  1 13  1  0  0  0  0
  2  3  1  0  0  0  0
  2  4  2  0  0  0  0
  3 14  1  0  0  0  0
  3 15  1  0  0  0  0
  3 16  1  0  0  0  0
  4  5  1  0  0  0  0
  4 17  1  0  0  0  0
  5  6  1  0  0  0  0
  5 11  2  0  0  0  0
  6  7  2  0  0  0  0
  7  8  1  0  0  0  0
  7  9  1  0  0  0  0
  8 18  1  0  0  0  0
  8 19  1  0  0  0  0
  8 20  1  0  0  0  0
  9 10  2  0  0  0  0
  9 21  1  0  0  0  0
 10 11  1  0  0  0  0
 10 22  1  0  0  0  0
 11 12  1  0  0  0  0
 12 23  1  0  0  0  0
M  END
