
 OpenBabel05082414303D

 13 13  0  0  0  0  0  0  0  0999 V2000
    1.9265   -0.0259    0.1013 O   0  0  0  0  0  0  0  0  0  0  0  0
    0.7094    0.0139    0.0662 C   0  0  0  0  0  0  0  0  0  0  0  0
   -0.1551    1.2396    0.2172 C   0  0  0  0  0  0  0  0  0  0  0  0
   -1.5166    0.7489   -0.2678 C   0  0  0  0  0  0  0  0  0  0  0  0
   -1.5030   -0.7321    0.0564 C   0  0  0  0  0  0  0  0  0  0  0  0
   -0.1209   -1.0807   -0.0617 N   0  0  0  0  0  0  0  0  0  0  0  0
    0.2193    2.0649   -0.3929 H   0  0  0  0  0  0  0  0  0  0  0  0
   -0.1838    1.5262    1.2722 H   0  0  0  0  0  0  0  0  0  0  0  0
   -1.5880    0.8896   -1.3534 H   0  0  0  0  0  0  0  0  0  0  0  0
   -2.3525    1.2801    0.1956 H   0  0  0  0  0  0  0  0  0  0  0  0
   -2.1002   -1.3267   -0.6387 H   0  0  0  0  0  0  0  0  0  0  0  0
   -1.8241   -0.9295    1.0846 H   0  0  0  0  0  0  0  0  0  0  0  0
    0.2602   -2.0183   -0.0703 H   0  0  0  0  0  0  0  0  0  0  0  0
  1  2  2  0  0  0  0
  2  3  1  0  0  0  0
  2  6  1  0  0  0  0
  3  4  1  0  0  0  0
  3  7  1  0  0  0  0
  3  8  1  0  0  0  0
  4  5  1  0  0  0  0
  4  9  1  0  0  0  0
  4 10  1  0  0  0  0
  5  6  1  0  0  0  0
  5 11  1  0  0  0  0
  5 12  1  0  0  0  0
  6 13  1  0  0  0  0
M  END
