
 OpenBabel05082410033D

 15 14  0  0  0  0  0  0  0  0999 V2000
    1.0327   -0.0747    0.0062 C   0  0  0  0  0  0  0  0  0  0  0  0
    0.5515    0.9865    0.9946 C   0  0  0  0  0  0  0  0  0  0  0  0
    0.5515    0.2413   -1.4092 C   0  0  0  0  0  0  0  0  0  0  0  0
    0.5588   -1.4614    0.4362 C   0  0  0  0  0  0  0  0  0  0  0  0
    2.4608   -0.0859    0.0097 O   0  0  0  0  0  0  0  0  0  0  0  0
   -0.5416    1.0288    1.0401 H   0  0  0  0  0  0  0  0  0  0  0  0
    0.9252    1.9787    0.7168 H   0  0  0  0  0  0  0  0  0  0  0  0
    0.9338    0.7829    2.0015 H   0  0  0  0  0  0  0  0  0  0  0  0
   -0.5416    0.2504   -1.4706 H   0  0  0  0  0  0  0  0  0  0  0  0
    0.9338   -0.4962   -2.1242 H   0  0  0  0  0  0  0  0  0  0  0  0
    0.9252    1.2166   -1.7412 H   0  0  0  0  0  0  0  0  0  0  0  0
   -0.5340   -1.5261    0.4562 H   0  0  0  0  0  0  0  0  0  0  0  0
    0.9396   -1.7126    1.4326 H   0  0  0  0  0  0  0  0  0  0  0  0
    0.9396   -2.2322   -0.2435 H   0  0  0  0  0  0  0  0  0  0  0  0
    2.7683    0.7956   -0.2636 H   0  0  0  0  0  0  0  0  0  0  0  0
  1  2  1  0  0  0  0
  1  3  1  0  0  0  0
  1  4  1  0  0  0  0
  1  5  1  0  0  0  0
  2  6  1  0  0  0  0
  2  7  1  0  0  0  0
  2  8  1  0  0  0  0
  3  9  1  0  0  0  0
  3 10  1  0  0  0  0
  3 11  1  0  0  0  0
  4 12  1  0  0  0  0
  4 13  1  0  0  0  0
  4 14  1  0  0  0  0
  5 15  1  0  0  0  0
M  END
