
 OpenBabel05082414303D

 35 35  0  0  0  0  0  0  0  0999 V2000
    1.3116    0.7697    0.0272 C   0  0  0  0  0  0  0  0  0  0  0  0
    2.7107    0.1659    0.0785 C   0  0  0  0  0  0  0  0  0  0  0  0
    3.0195   -0.3740    1.4333 N   0  0  0  0  0  0  0  0  0  0  0  0
    3.5378    0.7406    2.2847 C   0  0  0  0  0  0  0  0  0  0  0  0
    5.0491    0.8916    2.2037 C   0  0  0  0  0  0  0  0  0  0  0  0
    2.8940   -1.7276    1.8115 C   0  0  0  0  0  0  0  0  0  0  0  0
    2.5661   -2.8105    0.9420 C   0  0  0  0  0  0  0  0  0  0  0  0
    2.5185   -4.1847    1.3237 C   0  0  0  0  0  0  0  0  0  0  0  0
    2.8210   -4.6100    2.6119 C   0  0  0  0  0  0  0  0  0  0  0  0
    3.1961   -3.6366    3.5396 C   0  0  0  0  0  0  0  0  0  0  0  0
    3.4094   -4.0236    4.8810 N   0  0  0  0  0  0  0  0  0  0  0  0
    3.1131   -2.2379    3.1383 C   0  0  0  0  0  0  0  0  0  0  0  0
    3.1137   -1.3498    4.2798 N   0  0  0  0  0  0  0  0  0  0  0  0
    2.0198   -0.8672    4.6227 O   0  0  0  0  0  0  0  0  0  0  0  0
    4.1893   -1.1898    4.8763 O   0  0  0  0  0  0  0  0  0  0  0  0
    2.7042   -6.0782    2.9574 C   0  0  0  0  0  0  0  0  0  0  0  0
    2.3435   -6.8551    1.8977 F   0  0  0  0  0  0  0  0  0  0  0  0
    3.8786   -6.5968    3.4126 F   0  0  0  0  0  0  0  0  0  0  0  0
    1.7832   -6.3299    3.9255 F   0  0  0  0  0  0  0  0  0  0  0  0
    2.1726   -2.6727   -0.4503 N   0  0  0  0  0  0  0  0  0  0  0  0
    1.0470   -2.2244   -0.6822 O   0  0  0  0  0  0  0  0  0  0  0  0
    2.9585   -3.1289   -1.2947 O   0  0  0  0  0  0  0  0  0  0  0  0
    1.0490    1.0244   -1.0045 H   0  0  0  0  0  0  0  0  0  0  0  0
    1.2627    1.6965    0.6100 H   0  0  0  0  0  0  0  0  0  0  0  0
    0.5502    0.0949    0.4271 H   0  0  0  0  0  0  0  0  0  0  0  0
    3.4200    0.9701   -0.1630 H   0  0  0  0  0  0  0  0  0  0  0  0
    2.8932   -0.5348   -0.7307 H   0  0  0  0  0  0  0  0  0  0  0  0
    3.1966    0.7307    3.3142 H   0  0  0  0  0  0  0  0  0  0  0  0
    3.1116    1.6868    1.9235 H   0  0  0  0  0  0  0  0  0  0  0  0
    5.5641    0.1331    2.7978 H   0  0  0  0  0  0  0  0  0  0  0  0
    5.3384    1.8754    2.5927 H   0  0  0  0  0  0  0  0  0  0  0  0
    5.4131    0.8266    1.1736 H   0  0  0  0  0  0  0  0  0  0  0  0
    2.2264   -4.9332    0.5789 H   0  0  0  0  0  0  0  0  0  0  0  0
    3.7541   -4.9700    5.0356 H   0  0  0  0  0  0  0  0  0  0  0  0
    3.9578   -3.3630    5.4435 H   0  0  0  0  0  0  0  0  0  0  0  0
  1  2  1  0  0  0  0
  1 23  1  0  0  0  0
  1 24  1  0  0  0  0
  1 25  1  0  0  0  0
  2  3  1  0  0  0  0
  2 26  1  0  0  0  0
  2 27  1  0  0  0  0
  3  4  1  0  0  0  0
  3  6  1  0  0  0  0
  4  5  1  0  0  0  0
  4 28  1  0  0  0  0
  4 29  1  0  0  0  0
  5 30  1  0  0  0  0
  5 31  1  0  0  0  0
  5 32  1  0  0  0  0
  6  7  1  0  0  0  0
  6 12  2  0  0  0  0
  7  8  2  0  0  0  0
  7 20  1  0  0  0  0
  8  9  1  0  0  0  0
  8 33  1  0  0  0  0
  9 10  2  0  0  0  0
  9 16  1  0  0  0  0
 10 11  1  0  0  0  0
 10 12  1  0  0  0  0
 11 34  1  0  0  0  0
 11 35  1  0  0  0  0
 12 13  1  0  0  0  0
 13 14  2  0  0  0  0
 13 15  2  0  0  0  0
 16 17  1  0  0  0  0
 16 18  1  0  0  0  0
 16 19  1  0  0  0  0
 20 21  2  0  0  0  0
 20 22  2  0  0  0  0
M  END
