
 OpenBabel04162410323D

 29 31  0  0  0  0  0  0  0  0999 V2000
    0.9632   -0.0247    0.0231 H   0  0  0  0  0  0  0  0  0  0  0  0
    2.0484   -0.0805    0.0123 C   0  0  0  0  0  0  0  0  0  0  0  0
    2.6892   -1.3087    0.0509 C   0  0  0  0  0  0  0  0  0  0  0  0
    2.1121   -2.2286    0.0841 H   0  0  0  0  0  0  0  0  0  0  0  0
    4.0841   -1.3550    0.0447 C   0  0  0  0  0  0  0  0  0  0  0  0
    4.5531   -2.3333    0.0768 H   0  0  0  0  0  0  0  0  0  0  0  0
    4.8663   -0.1725   -0.0150 C   0  0  0  0  0  0  0  0  0  0  0  0
    6.2910   -0.1530   -0.0529 C   0  0  0  0  0  0  0  0  0  0  0  0
    7.0306   -1.3350    0.1935 N   0  0  0  0  0  0  0  0  0  0  0  0
    6.5745   -2.1885   -0.1034 H   0  0  0  0  0  0  0  0  0  0  0  0
    7.9968   -1.3090   -0.1084 H   0  0  0  0  0  0  0  0  0  0  0  0
    6.9610    1.0864   -0.1005 C   0  0  0  0  0  0  0  0  0  0  0  0
    6.1884    2.2509   -0.1031 C   0  0  0  0  0  0  0  0  0  0  0  0
    4.8350    2.2418   -0.0995 N   0  0  0  0  0  0  0  0  0  0  0  0
    4.1954    1.0662   -0.0560 C   0  0  0  0  0  0  0  0  0  0  0  0
    2.8069    1.0896   -0.0370 C   0  0  0  0  0  0  0  0  0  0  0  0
    2.3003    2.0519   -0.0588 H   0  0  0  0  0  0  0  0  0  0  0  0
    6.8116    3.6242   -0.1489 C   0  0  0  0  0  0  0  0  0  0  0  0
    6.2647    4.2979    0.5220 H   0  0  0  0  0  0  0  0  0  0  0  0
    6.6935    4.0126   -1.1680 H   0  0  0  0  0  0  0  0  0  0  0  0
    8.2876    3.6338    0.2296 C   0  0  0  0  0  0  0  0  0  0  0  0
    8.4030    3.4749    1.3091 H   0  0  0  0  0  0  0  0  0  0  0  0
    8.7257    4.6110   -0.0024 H   0  0  0  0  0  0  0  0  0  0  0  0
    9.0123    2.5347   -0.5296 C   0  0  0  0  0  0  0  0  0  0  0  0
    8.8720    2.6782   -1.6091 H   0  0  0  0  0  0  0  0  0  0  0  0
   10.0899    2.5804   -0.3377 H   0  0  0  0  0  0  0  0  0  0  0  0
    8.4703    1.1689   -0.1112 C   0  0  0  0  0  0  0  0  0  0  0  0
    8.8817    0.4309   -0.8097 H   0  0  0  0  0  0  0  0  0  0  0  0
    8.8359    0.9262    0.8936 H   0  0  0  0  0  0  0  0  0  0  0  0
  1  2  1  0  0  0  0
  2  3  1  0  0  0  0
  2 16  2  0  0  0  0
  3  4  1  0  0  0  0
  3  5  2  0  0  0  0
  5  6  1  0  0  0  0
  5  7  1  0  0  0  0
  7  8  1  0  0  0  0
  7 15  2  0  0  0  0
  8  9  1  0  0  0  0
  8 12  2  0  0  0  0
  9 10  1  0  0  0  0
  9 11  1  0  0  0  0
 12 13  1  0  0  0  0
 12 27  1  0  0  0  0
 13 14  2  0  0  0  0
 13 18  1  0  0  0  0
 14 15  1  0  0  0  0
 15 16  1  0  0  0  0
 16 17  1  0  0  0  0
 18 19  1  0  0  0  0
 18 20  1  0  0  0  0
 18 21  1  0  0  0  0
 21 22  1  0  0  0  0
 21 23  1  0  0  0  0
 21 24  1  0  0  0  0
 24 25  1  0  0  0  0
 24 26  1  0  0  0  0
 24 27  1  0  0  0  0
 27 28  1  0  0  0  0
 27 29  1  0  0  0  0
M  END
