
 OpenBabel05082414303D

 24 25  0  0  0  0  0  0  0  0999 V2000
    1.1517    0.0353   -0.1138 N   0  0  0  0  0  0  0  0  0  0  0  0
    0.3089    1.1665   -0.1092 C   0  0  0  0  0  0  0  0  0  0  0  0
    0.7162    2.3785   -0.6836 C   0  0  0  0  0  0  0  0  0  0  0  0
   -0.1093    3.5044   -0.6562 C   0  0  0  0  0  0  0  0  0  0  0  0
   -1.3673    3.4253   -0.0677 C   0  0  0  0  0  0  0  0  0  0  0  0
   -1.8023    2.2190    0.4768 C   0  0  0  0  0  0  0  0  0  0  0  0
   -0.9717    1.0933    0.4502 C   0  0  0  0  0  0  0  0  0  0  0  0
    2.5579    0.0144    0.0112 C   0  0  0  0  0  0  0  0  0  0  0  0
    3.2581    0.9942    0.7288 C   0  0  0  0  0  0  0  0  0  0  0  0
    4.6515    0.9658    0.8078 C   0  0  0  0  0  0  0  0  0  0  0  0
    5.3620   -0.0512    0.1768 C   0  0  0  0  0  0  0  0  0  0  0  0
    4.6783   -1.0477   -0.5161 C   0  0  0  0  0  0  0  0  0  0  0  0
    3.2822   -1.0202   -0.5887 C   0  0  0  0  0  0  0  0  0  0  0  0
    0.7314   -0.7966    0.2902 H   0  0  0  0  0  0  0  0  0  0  0  0
    1.6868    2.4523   -1.1684 H   0  0  0  0  0  0  0  0  0  0  0  0
    0.2345    4.4359   -1.0969 H   0  0  0  0  0  0  0  0  0  0  0  0
   -2.0095    4.3014   -0.0411 H   0  0  0  0  0  0  0  0  0  0  0  0
   -2.7898    2.1533    0.9266 H   0  0  0  0  0  0  0  0  0  0  0  0
   -1.3320    0.1653    0.8845 H   0  0  0  0  0  0  0  0  0  0  0  0
    2.7204    1.7885    1.2406 H   0  0  0  0  0  0  0  0  0  0  0  0
    5.1766    1.7412    1.3594 H   0  0  0  0  0  0  0  0  0  0  0  0
    6.4472   -0.0663    0.2264 H   0  0  0  0  0  0  0  0  0  0  0  0
    5.2309   -1.8420   -1.0109 H   0  0  0  0  0  0  0  0  0  0  0  0
    2.7630   -1.7922   -1.1498 H   0  0  0  0  0  0  0  0  0  0  0  0
  1  2  1  0  0  0  0
  1  8  1  0  0  0  0
  1 14  1  0  0  0  0
  2  3  1  0  0  0  0
  2  7  2  0  0  0  0
  3  4  2  0  0  0  0
  3 15  1  0  0  0  0
  4  5  1  0  0  0  0
  4 16  1  0  0  0  0
  5  6  2  0  0  0  0
  5 17  1  0  0  0  0
  6  7  1  0  0  0  0
  6 18  1  0  0  0  0
  7 19  1  0  0  0  0
  8  9  1  0  0  0  0
  8 13  2  0  0  0  0
  9 10  2  0  0  0  0
  9 20  1  0  0  0  0
 10 11  1  0  0  0  0
 10 21  1  0  0  0  0
 11 12  2  0  0  0  0
 11 22  1  0  0  0  0
 12 13  1  0  0  0  0
 12 23  1  0  0  0  0
 13 24  1  0  0  0  0
M  END
