
 OpenBabel05082414303D

 26 26  0  0  0  0  0  0  0  0999 V2000
    0.9373   -0.1394   -0.5116 C   0  0  0  0  0  0  0  0  0  0  0  0
    2.4139   -0.4195   -0.7095 C   0  0  0  0  0  0  0  0  0  0  0  0
    3.0375    0.7309   -1.2860 O   0  0  0  0  0  0  0  0  0  0  0  0
    4.3851    0.6271   -1.5109 C   0  0  0  0  0  0  0  0  0  0  0  0
    5.1609   -0.4974   -1.2407 C   0  0  0  0  0  0  0  0  0  0  0  0
    6.5348   -0.4950   -1.5018 C   0  0  0  0  0  0  0  0  0  0  0  0
    7.1624    0.6281   -2.0371 C   0  0  0  0  0  0  0  0  0  0  0  0
    8.5482    0.6900   -2.3052 N   0  0  0  0  0  0  0  0  0  0  0  0
    9.4794   -0.3069   -2.0801 C   0  0  0  0  0  0  0  0  0  0  0  0
    9.2702   -1.4280   -1.6270 O   0  0  0  0  0  0  0  0  0  0  0  0
   10.8877    0.0893   -2.4502 C   0  0  0  0  0  0  0  0  0  0  0  0
    6.3813    1.7570   -2.3179 C   0  0  0  0  0  0  0  0  0  0  0  0
    5.0027    1.7542   -2.0547 C   0  0  0  0  0  0  0  0  0  0  0  0
    0.4431   -1.0000   -0.0475 H   0  0  0  0  0  0  0  0  0  0  0  0
    0.4520    0.0712   -1.4683 H   0  0  0  0  0  0  0  0  0  0  0  0
    0.7903    0.7370    0.1263 H   0  0  0  0  0  0  0  0  0  0  0  0
    2.5189   -1.2811   -1.3787 H   0  0  0  0  0  0  0  0  0  0  0  0
    2.8610   -0.6416    0.2665 H   0  0  0  0  0  0  0  0  0  0  0  0
    4.7397   -1.4042   -0.8221 H   0  0  0  0  0  0  0  0  0  0  0  0
    7.0823   -1.4010   -1.2675 H   0  0  0  0  0  0  0  0  0  0  0  0
    8.8845    1.5635   -2.6906 H   0  0  0  0  0  0  0  0  0  0  0  0
   10.9480    1.1095   -2.8356 H   0  0  0  0  0  0  0  0  0  0  0  0
   11.2561   -0.5984   -3.2166 H   0  0  0  0  0  0  0  0  0  0  0  0
   11.5175    0.0143   -1.5586 H   0  0  0  0  0  0  0  0  0  0  0  0
    6.8257    2.6551   -2.7391 H   0  0  0  0  0  0  0  0  0  0  0  0
    4.4097    2.6393   -2.2740 H   0  0  0  0  0  0  0  0  0  0  0  0
  1  2  1  0  0  0  0
  1 14  1  0  0  0  0
  1 15  1  0  0  0  0
  1 16  1  0  0  0  0
  2  3  1  0  0  0  0
  2 17  1  0  0  0  0
  2 18  1  0  0  0  0
  3  4  1  0  0  0  0
  4  5  1  0  0  0  0
  4 13  2  0  0  0  0
  5  6  2  0  0  0  0
  5 19  1  0  0  0  0
  6  7  1  0  0  0  0
  6 20  1  0  0  0  0
  7  8  1  0  0  0  0
  7 12  2  0  0  0  0
  8  9  1  0  0  0  0
  8 21  1  0  0  0  0
  9 10  2  0  0  0  0
  9 11  1  0  0  0  0
 11 22  1  0  0  0  0
 11 23  1  0  0  0  0
 11 24  1  0  0  0  0
 12 13  1  0  0  0  0
 12 25  1  0  0  0  0
 13 26  1  0  0  0  0
M  END
