
 OpenBabel05082414303D

 36 36  0  0  0  0  0  0  0  0999 V2000
    1.1275    0.0025   -0.1005 C   0  0  0  0  0  0  0  0  0  0  0  0
    2.5771    0.0272   -0.0356 N   0  0  0  0  0  0  0  0  0  0  0  0
    3.2021    0.6420    1.1283 C   0  0  0  0  0  0  0  0  0  0  0  0
    3.2763   -0.5364   -1.0983 C   0  0  0  0  0  0  0  0  0  0  0  0
    2.7321   -1.0331   -2.0793 O   0  0  0  0  0  0  0  0  0  0  0  0
    5.0313   -0.5009   -0.9590 S   0  0  0  0  0  0  0  0  0  0  0  0
    5.5049   -1.2802   -2.5280 C   0  0  0  0  0  0  0  0  0  0  0  0
    7.0334   -1.3059   -2.6243 C   0  0  0  0  0  0  0  0  0  0  0  0
    7.5566   -1.9708   -3.9013 C   0  0  0  0  0  0  0  0  0  0  0  0
    7.1318   -1.2367   -5.1696 C   0  0  0  0  0  0  0  0  0  0  0  0
    7.7239   -1.8784   -6.2991 O   0  0  0  0  0  0  0  0  0  0  0  0
    7.4508   -1.3143   -7.5178 C   0  0  0  0  0  0  0  0  0  0  0  0
    6.6223   -0.2107   -7.7401 C   0  0  0  0  0  0  0  0  0  0  0  0
    6.4329    0.2807   -9.0347 C   0  0  0  0  0  0  0  0  0  0  0  0
    7.0679   -0.3283  -10.1136 C   0  0  0  0  0  0  0  0  0  0  0  0
    7.8883   -1.4339   -9.9005 C   0  0  0  0  0  0  0  0  0  0  0  0
    8.0760   -1.9246   -8.6066 C   0  0  0  0  0  0  0  0  0  0  0  0
    0.6790    0.4650    0.7840 H   0  0  0  0  0  0  0  0  0  0  0  0
    0.7914   -1.0362   -0.1703 H   0  0  0  0  0  0  0  0  0  0  0  0
    0.7977    0.5420   -0.9933 H   0  0  0  0  0  0  0  0  0  0  0  0
    2.4525    1.0172    1.8296 H   0  0  0  0  0  0  0  0  0  0  0  0
    3.8275    1.4791    0.8027 H   0  0  0  0  0  0  0  0  0  0  0  0
    3.8205   -0.1014    1.6407 H   0  0  0  0  0  0  0  0  0  0  0  0
    5.0743   -0.6986   -3.3484 H   0  0  0  0  0  0  0  0  0  0  0  0
    5.1046   -2.2984   -2.5709 H   0  0  0  0  0  0  0  0  0  0  0  0
    7.4476   -1.8519   -1.7672 H   0  0  0  0  0  0  0  0  0  0  0  0
    7.4292   -0.2835   -2.5733 H   0  0  0  0  0  0  0  0  0  0  0  0
    7.2295   -3.0164   -3.9487 H   0  0  0  0  0  0  0  0  0  0  0  0
    8.6532   -2.0058   -3.8600 H   0  0  0  0  0  0  0  0  0  0  0  0
    7.4733   -0.1959   -5.1105 H   0  0  0  0  0  0  0  0  0  0  0  0
    6.0420   -1.2744   -5.2656 H   0  0  0  0  0  0  0  0  0  0  0  0
    6.1055    0.2923   -6.9302 H   0  0  0  0  0  0  0  0  0  0  0  0
    5.7886    1.1409   -9.1965 H   0  0  0  0  0  0  0  0  0  0  0  0
    6.9228    0.0591  -11.1186 H   0  0  0  0  0  0  0  0  0  0  0  0
    8.3838   -1.9138  -10.7406 H   0  0  0  0  0  0  0  0  0  0  0  0
    8.7177   -2.7884   -8.4464 H   0  0  0  0  0  0  0  0  0  0  0  0
  1  2  1  0  0  0  0
  1 18  1  0  0  0  0
  1 19  1  0  0  0  0
  1 20  1  0  0  0  0
  2  3  1  0  0  0  0
  2  4  1  0  0  0  0
  3 21  1  0  0  0  0
  3 22  1  0  0  0  0
  3 23  1  0  0  0  0
  4  5  2  0  0  0  0
  4  6  1  0  0  0  0
  6  7  1  0  0  0  0
  7  8  1  0  0  0  0
  7 24  1  0  0  0  0
  7 25  1  0  0  0  0
  8  9  1  0  0  0  0
  8 26  1  0  0  0  0
  8 27  1  0  0  0  0
  9 10  1  0  0  0  0
  9 28  1  0  0  0  0
  9 29  1  0  0  0  0
 10 11  1  0  0  0  0
 10 30  1  0  0  0  0
 10 31  1  0  0  0  0
 11 12  1  0  0  0  0
 12 13  1  0  0  0  0
 12 17  2  0  0  0  0
 13 14  2  0  0  0  0
 13 32  1  0  0  0  0
 14 15  1  0  0  0  0
 14 33  1  0  0  0  0
 15 16  2  0  0  0  0
 15 34  1  0  0  0  0
 16 17  1  0  0  0  0
 16 35  1  0  0  0  0
 17 36  1  0  0  0  0
M  END
