
 OpenBabel05082414303D

 16 15  0  0  0  0  0  0  0  0999 V2000
    1.0189   -0.0744   -0.0251 C   0  0  0  0  0  0  0  0  0  0  0  0
    2.5388   -0.0826   -0.0344 C   0  0  0  0  0  0  0  0  0  0  0  0
    3.0755   -1.1734   -0.9581 C   0  0  0  0  0  0  0  0  0  0  0  0
    4.5993   -1.1932   -0.9752 C   0  0  0  0  0  0  0  0  0  0  0  0
    5.1459   -2.2678   -1.8830 C   0  0  0  0  0  0  0  0  0  0  0  0
    4.4594   -3.0457   -2.5383 O   0  0  0  0  0  0  0  0  0  0  0  0
    0.6465    0.7108    0.6398 H   0  0  0  0  0  0  0  0  0  0  0  0
    0.6249   -1.0335    0.3261 H   0  0  0  0  0  0  0  0  0  0  0  0
    0.6228    0.1123   -1.0283 H   0  0  0  0  0  0  0  0  0  0  0  0
    2.9060   -0.2425    0.9862 H   0  0  0  0  0  0  0  0  0  0  0  0
    2.9039    0.8979   -0.3619 H   0  0  0  0  0  0  0  0  0  0  0  0
    2.6976   -1.0139   -1.9757 H   0  0  0  0  0  0  0  0  0  0  0  0
    2.6976   -2.1510   -0.6326 H   0  0  0  0  0  0  0  0  0  0  0  0
    4.9922   -1.3777    0.0303 H   0  0  0  0  0  0  0  0  0  0  0  0
    4.9918   -0.2326   -1.3253 H   0  0  0  0  0  0  0  0  0  0  0  0
    6.2470   -2.3220   -1.9303 H   0  0  0  0  0  0  0  0  0  0  0  0
  1  2  1  0  0  0  0
  1  7  1  0  0  0  0
  1  8  1  0  0  0  0
  1  9  1  0  0  0  0
  2  3  1  0  0  0  0
  2 10  1  0  0  0  0
  2 11  1  0  0  0  0
  3  4  1  0  0  0  0
  3 12  1  0  0  0  0
  3 13  1  0  0  0  0
  4  5  1  0  0  0  0
  4 14  1  0  0  0  0
  4 15  1  0  0  0  0
  5  6  2  0  0  0  0
  5 16  1  0  0  0  0
M  END
