
 OpenBabel05082414303D

  9  9  0  0  0  0  0  0  0  0999 V2000
    1.3875   -0.7056    0.0015 C   0  0  0  0  0  0  0  0  0  0  0  0
    1.3830    0.7196    0.0014 C   0  0  0  0  0  0  0  0  0  0  0  0
    0.1041    1.2320   -0.0049 C   0  0  0  0  0  0  0  0  0  0  0  0
   -1.0832   -0.0009   -0.0100 S   0  0  0  0  0  0  0  0  0  0  0  0
    0.1120   -1.2262   -0.0052 C   0  0  0  0  0  0  0  0  0  0  0  0
    2.2807   -1.3182    0.0059 H   0  0  0  0  0  0  0  0  0  0  0  0
    2.2721    1.3379    0.0054 H   0  0  0  0  0  0  0  0  0  0  0  0
   -0.1936    2.2716   -0.0067 H   0  0  0  0  0  0  0  0  0  0  0  0
   -0.1791   -2.2676   -0.0073 H   0  0  0  0  0  0  0  0  0  0  0  0
  1  2  1  0  0  0  0
  1  5  2  0  0  0  0
  1  6  1  0  0  0  0
  2  3  2  0  0  0  0
  2  7  1  0  0  0  0
  3  4  1  0  0  0  0
  3  8  1  0  0  0  0
  4  5  1  0  0  0  0
  5  9  1  0  0  0  0
M  END
