
 OpenBabel05082414303D

 51 55  0  0  1  0  0  0  0  0999 V2000
    2.3459    1.2228   -1.0430 C   0  0  0  0  0  0  0  0  0  0  0  0
    2.9755    0.4794    0.0025 O   0  0  0  0  0  0  0  0  0  0  0  0
    3.0418    1.1311    1.2079 C   0  0  0  0  0  0  0  0  0  0  0  0
    2.5081    0.4273    2.2549 C   0  0  0  0  0  0  0  0  0  0  0  0
    2.2828    1.0795    3.4638 C   0  0  0  0  0  0  0  0  0  0  0  0
    1.3631    0.3714    4.1934 O   0  0  0  0  0  0  0  0  0  0  0  0
    0.3128    1.2604    4.5476 C   0  0  0  0  0  0  0  0  0  0  0  0
    0.9014    2.2062    5.5535 C   0  0  3  0  0  0  0  0  0  0  0  0
    1.5298    1.3183    6.4940 O   0  0  0  0  0  0  0  0  0  0  0  0
    1.7481    1.9748    7.6384 C   0  0  0  0  0  0  0  0  0  0  0  0
    1.4412    1.2865    8.7898 C   0  0  0  0  0  0  0  0  0  0  0  0
    1.0580   -0.1311    8.9270 C   0  0  0  0  0  0  0  0  0  0  0  0
    1.2713   -0.2554   10.4357 C   0  0  3  0  0  0  0  0  0  0  0  0
    0.9673    1.0715   11.0049 O   0  0  0  0  0  0  0  0  0  0  0  0
    1.3470    1.9366    9.9912 C   0  0  0  0  0  0  0  0  0  0  0  0
    1.5689    3.3056   10.0429 C   0  0  0  0  0  0  0  0  0  0  0  0
    2.0077    3.9924    8.8590 C   0  0  0  0  0  0  0  0  0  0  0  0
    2.1393    3.2922    7.6330 C   0  0  0  0  0  0  0  0  0  0  0  0
    2.5935    3.8198    6.2454 C   0  0  0  0  0  0  0  0  0  0  0  0
    3.2966    4.8270    6.1950 O   0  0  0  0  0  0  0  0  0  0  0  0
    1.9756    3.1361    4.9714 C   0  0  3  0  0  0  0  0  0  0  0  0
    2.7112    2.4019    3.7795 C   0  0  0  0  0  0  0  0  0  0  0  0
    3.4438    3.0361    2.7323 C   0  0  0  0  0  0  0  0  0  0  0  0
    3.5793    2.4070    1.4428 C   0  0  0  0  0  0  0  0  0  0  0  0
    4.0690    3.0003    0.3082 O   0  0  0  0  0  0  0  0  0  0  0  0
    5.2386    3.7883    0.4030 C   0  0  0  0  0  0  0  0  0  0  0  0
    0.5067   -1.4302   11.0354 C   0  0  0  0  0  0  0  0  0  0  0  0
    0.8212   -2.8050   10.4873 C   0  0  0  0  0  0  0  0  0  0  0  0
   -0.3996   -1.3263   12.0311 C   0  0  0  0  0  0  0  0  0  0  0  0
    1.7458    0.5290   -1.6427 H   0  0  0  0  0  0  0  0  0  0  0  0
    3.1168    1.6396   -1.6969 H   0  0  0  0  0  0  0  0  0  0  0  0
    1.6722    2.0111   -0.6869 H   0  0  0  0  0  0  0  0  0  0  0  0
    2.0803   -0.5593    2.0954 H   0  0  0  0  0  0  0  0  0  0  0  0
   -0.4670    0.6517    5.0121 H   0  0  0  0  0  0  0  0  0  0  0  0
   -0.1120    1.7624    3.6702 H   0  0  0  0  0  0  0  0  0  0  0  0
    0.0876    2.7839    6.0180 H   0  0  0  0  0  0  0  0  0  0  0  0
    1.7094   -0.8032    8.3633 H   0  0  0  0  0  0  0  0  0  0  0  0
    0.0108   -0.2760    8.6308 H   0  0  0  0  0  0  0  0  0  0  0  0
    2.3343   -0.4327   10.6552 H   0  0  0  0  0  0  0  0  0  0  0  0
    1.4034    3.8416   10.9760 H   0  0  0  0  0  0  0  0  0  0  0  0
    2.1787    5.0667    8.9158 H   0  0  0  0  0  0  0  0  0  0  0  0
    1.4402    3.9543    4.4648 H   0  0  0  0  0  0  0  0  0  0  0  0
    3.8006    4.0566    2.8536 H   0  0  0  0  0  0  0  0  0  0  0  0
    5.6564    3.8658   -0.6103 H   0  0  0  0  0  0  0  0  0  0  0  0
    6.0036    3.3362    1.0395 H   0  0  0  0  0  0  0  0  0  0  0  0
    4.9751    4.7950    0.7287 H   0  0  0  0  0  0  0  0  0  0  0  0
    1.6041   -2.7741    9.7251 H   0  0  0  0  0  0  0  0  0  0  0  0
   -0.0669   -3.2585   10.0312 H   0  0  0  0  0  0  0  0  0  0  0  0
    1.1758   -3.4667   11.2845 H   0  0  0  0  0  0  0  0  0  0  0  0
   -0.6539   -0.3835   12.4754 H   0  0  0  0  0  0  0  0  0  0  0  0
   -0.8880   -2.2155   12.4251 H   0  0  0  0  0  0  0  0  0  0  0  0
  1  2  1  0  0  0  0
  1 30  1  0  0  0  0
  1 31  1  0  0  0  0
  1 32  1  0  0  0  0
  2  3  1  0  0  0  0
  3  4  1  0  0  0  0
  3 24  2  0  0  0  0
  4  5  2  0  0  0  0
  4 33  1  0  0  0  0
  5  6  1  0  0  0  0
  5 22  1  0  0  0  0
  6  7  1  0  0  0  0
  7  8  1  0  0  0  0
  7 34  1  0  0  0  0
  7 35  1  0  0  0  0
  8  9  1  0  0  0  0
  8 21  1  0  0  0  0
  8 36  1  0  0  0  0
  9 10  1  0  0  0  0
 10 11  1  0  0  0  0
 10 18  2  0  0  0  0
 11 12  1  0  0  0  0
 11 15  2  0  0  0  0
 12 13  1  0  0  0  0
 12 37  1  0  0  0  0
 12 38  1  0  0  0  0
 13 14  1  0  0  0  0
 13 27  1  0  0  0  0
 13 39  1  0  0  0  0
 14 15  1  0  0  0  0
 15 16  1  0  0  0  0
 16 17  2  0  0  0  0
 16 40  1  0  0  0  0
 17 18  1  0  0  0  0
 17 41  1  0  0  0  0
 18 19  1  0  0  0  0
 19 20  2  0  0  0  0
 19 21  1  0  0  0  0
 21 22  1  0  0  0  0
 21 42  1  0  0  0  0
 22 23  2  0  0  0  0
 23 24  1  0  0  0  0
 23 43  1  0  0  0  0
 24 25  1  0  0  0  0
 25 26  1  0  0  0  0
 26 44  1  0  0  0  0
 26 45  1  0  0  0  0
 26 46  1  0  0  0  0
 27 28  1  0  0  0  0
 27 29  2  0  0  0  0
 28 47  1  0  0  0  0
 28 48  1  0  0  0  0
 28 49  1  0  0  0  0
 29 50  1  0  0  0  0
 29 51  1  0  0  0  0
M  END
