
 OpenBabel05082414303D

 29 28  0  0  0  0  0  0  0  0999 V2000
    0.8708    0.1012    0.0858 C   0  0  0  0  0  0  0  0  0  0  0  0
    2.4035    0.1021    0.0881 C   0  0  0  0  0  0  0  0  0  0  0  0
    2.9138    0.6655    1.4133 C   0  0  0  0  0  0  0  0  0  0  0  0
    2.9045   -1.3297   -0.1822 C   0  0  0  0  0  0  0  0  0  0  0  0
    4.4331   -1.4735   -0.2449 C   0  0  0  0  0  0  0  0  0  0  0  0
    4.9432   -2.9182   -0.5120 C   0  0  0  0  0  0  0  0  0  0  0  0
    4.4827   -3.4286   -1.8870 C   0  0  0  0  0  0  0  0  0  0  0  0
    6.4863   -2.9039   -0.4941 C   0  0  0  0  0  0  0  0  0  0  0  0
    4.4589   -3.8852    0.5807 C   0  0  0  0  0  0  0  0  0  0  0  0
    0.4795    1.1132    0.2396 H   0  0  0  0  0  0  0  0  0  0  0  0
    0.4715   -0.5366    0.8807 H   0  0  0  0  0  0  0  0  0  0  0  0
    0.4808   -0.2652   -0.8692 H   0  0  0  0  0  0  0  0  0  0  0  0
    2.7459    0.7564   -0.7230 H   0  0  0  0  0  0  0  0  0  0  0  0
    2.6752   -0.0031    2.2475 H   0  0  0  0  0  0  0  0  0  0  0  0
    2.4601    1.6405    1.6217 H   0  0  0  0  0  0  0  0  0  0  0  0
    3.9977    0.8133    1.3922 H   0  0  0  0  0  0  0  0  0  0  0  0
    2.4730   -1.6631   -1.1324 H   0  0  0  0  0  0  0  0  0  0  0  0
    2.5029   -1.9862    0.5974 H   0  0  0  0  0  0  0  0  0  0  0  0
    4.8646   -1.1298    0.7036 H   0  0  0  0  0  0  0  0  0  0  0  0
    4.8186   -0.7999   -1.0222 H   0  0  0  0  0  0  0  0  0  0  0  0
    4.8390   -2.7746   -2.6912 H   0  0  0  0  0  0  0  0  0  0  0  0
    3.3922   -3.4857   -1.9580 H   0  0  0  0  0  0  0  0  0  0  0  0
    4.8692   -4.4353   -2.0815 H   0  0  0  0  0  0  0  0  0  0  0  0
    6.8866   -2.2586   -1.2844 H   0  0  0  0  0  0  0  0  0  0  0  0
    6.8921   -3.9098   -0.6476 H   0  0  0  0  0  0  0  0  0  0  0  0
    6.8676   -2.5349    0.4651 H   0  0  0  0  0  0  0  0  0  0  0  0
    3.3705   -3.9972    0.5735 H   0  0  0  0  0  0  0  0  0  0  0  0
    4.7571   -3.5365    1.5756 H   0  0  0  0  0  0  0  0  0  0  0  0
    4.8824   -4.8860    0.4374 H   0  0  0  0  0  0  0  0  0  0  0  0
  1  2  1  0  0  0  0
  1 10  1  0  0  0  0
  1 11  1  0  0  0  0
  1 12  1  0  0  0  0
  2  3  1  0  0  0  0
  2  4  1  0  0  0  0
  2 13  1  0  0  0  0
  3 14  1  0  0  0  0
  3 15  1  0  0  0  0
  3 16  1  0  0  0  0
  4  5  1  0  0  0  0
  4 17  1  0  0  0  0
  4 18  1  0  0  0  0
  5  6  1  0  0  0  0
  5 19  1  0  0  0  0
  5 20  1  0  0  0  0
  6  7  1  0  0  0  0
  6  8  1  0  0  0  0
  6  9  1  0  0  0  0
  7 21  1  0  0  0  0
  7 22  1  0  0  0  0
  7 23  1  0  0  0  0
  8 24  1  0  0  0  0
  8 25  1  0  0  0  0
  8 26  1  0  0  0  0
  9 27  1  0  0  0  0
  9 28  1  0  0  0  0
  9 29  1  0  0  0  0
M  END
