
 OpenBabel05082414303D

 27 26  0  0  0  0  0  0  0  0999 V2000
    0.8987    0.8612   -1.2579 C   0  0  0  0  0  0  0  0  0  0  0  0
    2.3997    0.9430   -1.2910 C   0  0  0  0  0  0  0  0  0  0  0  0
    3.0088    2.3066   -1.4603 C   0  0  0  0  0  0  0  0  0  0  0  0
    3.1415   -0.1778   -1.1871 C   0  0  0  0  0  0  0  0  0  0  0  0
    4.6469   -0.2413   -1.1552 C   0  0  0  0  0  0  0  0  0  0  0  0
    5.2467   -0.4102   -2.5570 C   0  0  0  0  0  0  0  0  0  0  0  0
    6.7643   -0.4557   -2.5600 C   0  0  0  0  0  0  0  0  0  0  0  0
    7.4771    0.7868   -2.0958 C   0  0  0  0  0  0  0  0  0  0  0  0
    7.4056   -1.5538   -3.0034 C   0  0  0  0  0  0  0  0  0  0  0  0
    8.8770   -1.6890   -3.0745 C   0  0  0  0  0  0  0  0  0  0  0  0
    9.3992   -2.7131   -3.4978 O   0  0  0  0  0  0  0  0  0  0  0  0
    0.4329    1.8441   -1.3846 H   0  0  0  0  0  0  0  0  0  0  0  0
    0.5582    0.4615   -0.2966 H   0  0  0  0  0  0  0  0  0  0  0  0
    0.5264    0.2187   -2.0623 H   0  0  0  0  0  0  0  0  0  0  0  0
    2.2461    3.0834   -1.5676 H   0  0  0  0  0  0  0  0  0  0  0  0
    3.6288    2.3413   -2.3620 H   0  0  0  0  0  0  0  0  0  0  0  0
    3.6218    2.5700   -0.5929 H   0  0  0  0  0  0  0  0  0  0  0  0
    2.6351   -1.1387   -1.0883 H   0  0  0  0  0  0  0  0  0  0  0  0
    4.9447   -1.0836   -0.5174 H   0  0  0  0  0  0  0  0  0  0  0  0
    5.0460    0.6534   -0.6646 H   0  0  0  0  0  0  0  0  0  0  0  0
    4.9287    0.4155   -3.2065 H   0  0  0  0  0  0  0  0  0  0  0  0
    4.8367   -1.3226   -3.0102 H   0  0  0  0  0  0  0  0  0  0  0  0
    6.7761    1.5835   -1.8279 H   0  0  0  0  0  0  0  0  0  0  0  0
    8.1189    1.1850   -2.8884 H   0  0  0  0  0  0  0  0  0  0  0  0
    8.0856    0.5733   -1.2108 H   0  0  0  0  0  0  0  0  0  0  0  0
    6.8650   -2.4290   -3.3525 H   0  0  0  0  0  0  0  0  0  0  0  0
    9.4747   -0.8304   -2.7329 H   0  0  0  0  0  0  0  0  0  0  0  0
  1  2  1  0  0  0  0
  1 12  1  0  0  0  0
  1 13  1  0  0  0  0
  1 14  1  0  0  0  0
  2  3  1  0  0  0  0
  2  4  2  0  0  0  0
  3 15  1  0  0  0  0
  3 16  1  0  0  0  0
  3 17  1  0  0  0  0
  4  5  1  0  0  0  0
  4 18  1  0  0  0  0
  5  6  1  0  0  0  0
  5 19  1  0  0  0  0
  5 20  1  0  0  0  0
  6  7  1  0  0  0  0
  6 21  1  0  0  0  0
  6 22  1  0  0  0  0
  7  8  1  0  0  0  0
  7  9  2  3  0  0  0
  8 23  1  0  0  0  0
  8 24  1  0  0  0  0
  8 25  1  0  0  0  0
  9 10  1  0  0  0  0
  9 26  1  0  0  0  0
 10 11  2  0  0  0  0
 10 27  1  0  0  0  0
M  END
