
 OpenBabel05082414303D

 49 49  0  0  1  0  0  0  0  0999 V2000
    4.6768    0.7318    2.6011 C   0  0  0  0  0  0  0  0  0  0  0  0
    4.2098    0.3189    1.2140 C   0  0  0  0  0  0  0  0  0  0  0  0
    4.6803    1.3089    0.1590 C   0  0  0  0  0  0  0  0  0  0  0  0
    4.3754    0.8076   -1.1466 O   0  0  0  0  0  0  0  0  0  0  0  0
    4.9521    1.8052   -2.4370 P   0  0  0  0  0  0  0  0  0  0  0  0
    6.8336    1.0093   -2.2687 S   0  0  0  0  0  0  0  0  0  0  0  0
    4.1055    0.8031   -3.5000 O   0  0  0  0  0  0  0  0  0  0  0  0
    3.6270   -0.4830   -3.0961 C   0  0  0  0  0  0  0  0  0  0  0  0
    3.2164   -1.3471   -4.2767 C   0  0  0  0  0  0  0  0  0  0  0  0
    4.4113   -1.8397   -5.0792 C   0  0  0  0  0  0  0  0  0  0  0  0
    5.6587    3.0278   -4.0183 S   0  0  0  0  0  0  0  0  0  0  0  0
    4.4423    2.9784   -5.3155 C   0  0  0  0  0  0  0  0  0  0  0  0
    3.0628    3.3308   -4.7810 C   0  0  0  0  0  0  0  0  0  0  0  0
    2.9439    3.8600   -3.6760 O   0  0  0  0  0  0  0  0  0  0  0  0
    1.9795    3.0213   -5.6151 N   0  0  0  0  0  0  0  0  0  0  0  0
    2.1789    2.1485   -6.7828 C   0  0  0  0  0  0  0  0  0  0  0  0
    1.1808    2.3852   -7.9037 C   0  0  0  0  0  0  0  0  0  0  0  0
   -0.2405    2.3446   -7.3888 C   0  0  0  0  0  0  0  0  0  0  0  0
   -0.4056    3.3263   -6.2381 C   0  0  0  0  0  0  0  0  0  0  0  0
    0.5908    3.0561   -5.0927 C   0  0  3  0  0  0  0  0  0  0  0  0
    0.2853    4.0543   -3.9667 C   0  0  0  0  0  0  0  0  0  0  0  0
    4.3485    0.0041    3.3496 H   0  0  0  0  0  0  0  0  0  0  0  0
    4.2742    1.7120    2.8761 H   0  0  0  0  0  0  0  0  0  0  0  0
    5.7706    0.7894    2.6463 H   0  0  0  0  0  0  0  0  0  0  0  0
    3.1169    0.2455    1.1901 H   0  0  0  0  0  0  0  0  0  0  0  0
    4.5902   -0.6829    0.9806 H   0  0  0  0  0  0  0  0  0  0  0  0
    5.7597    1.4490    0.2666 H   0  0  0  0  0  0  0  0  0  0  0  0
    4.1988    2.2828    0.2873 H   0  0  0  0  0  0  0  0  0  0  0  0
    2.7414   -0.3273   -2.4701 H   0  0  0  0  0  0  0  0  0  0  0  0
    4.3867   -1.0247   -2.5231 H   0  0  0  0  0  0  0  0  0  0  0  0
    2.5473   -0.7823   -4.9437 H   0  0  0  0  0  0  0  0  0  0  0  0
    2.6633   -2.2146   -3.9100 H   0  0  0  0  0  0  0  0  0  0  0  0
    4.9890   -1.0056   -5.4915 H   0  0  0  0  0  0  0  0  0  0  0  0
    4.0744   -2.4684   -5.9096 H   0  0  0  0  0  0  0  0  0  0  0  0
    5.0743   -2.4436   -4.4515 H   0  0  0  0  0  0  0  0  0  0  0  0
    4.4756    1.9687   -5.7228 H   0  0  0  0  0  0  0  0  0  0  0  0
    4.7173    3.6991   -6.0973 H   0  0  0  0  0  0  0  0  0  0  0  0
    2.1165    1.1153   -6.4183 H   0  0  0  0  0  0  0  0  0  0  0  0
    3.1681    2.2859   -7.2183 H   0  0  0  0  0  0  0  0  0  0  0  0
    1.3243    1.6297   -8.6849 H   0  0  0  0  0  0  0  0  0  0  0  0
    1.3824    3.3617   -8.3602 H   0  0  0  0  0  0  0  0  0  0  0  0
   -0.4879    1.3302   -7.0520 H   0  0  0  0  0  0  0  0  0  0  0  0
   -0.9327    2.5969   -8.1990 H   0  0  0  0  0  0  0  0  0  0  0  0
   -1.4372    3.2614   -5.8660 H   0  0  0  0  0  0  0  0  0  0  0  0
   -0.2608    4.3473   -6.6154 H   0  0  0  0  0  0  0  0  0  0  0  0
    0.4031    2.0510   -4.6933 H   0  0  0  0  0  0  0  0  0  0  0  0
    0.5931    5.0708   -4.2360 H   0  0  0  0  0  0  0  0  0  0  0  0
    0.7746    3.7715   -3.0279 H   0  0  0  0  0  0  0  0  0  0  0  0
   -0.7890    4.0735   -3.7430 H   0  0  0  0  0  0  0  0  0  0  0  0
  1  2  1  0  0  0  0
  1 22  1  0  0  0  0
  1 23  1  0  0  0  0
  1 24  1  0  0  0  0
  2  3  1  0  0  0  0
  2 25  1  0  0  0  0
  2 26  1  0  0  0  0
  3  4  1  0  0  0  0
  3 27  1  0  0  0  0
  3 28  1  0  0  0  0
  4  5  1  0  0  0  0
  5  6  2  0  0  0  0
  5  7  1  0  0  0  0
  5 11  1  0  0  0  0
  7  8  1  0  0  0  0
  8  9  1  0  0  0  0
  8 29  1  0  0  0  0
  8 30  1  0  0  0  0
  9 10  1  0  0  0  0
  9 31  1  0  0  0  0
  9 32  1  0  0  0  0
 10 33  1  0  0  0  0
 10 34  1  0  0  0  0
 10 35  1  0  0  0  0
 11 12  1  0  0  0  0
 12 13  1  0  0  0  0
 12 36  1  0  0  0  0
 12 37  1  0  0  0  0
 13 14  2  0  0  0  0
 13 15  1  0  0  0  0
 15 16  1  0  0  0  0
 15 20  1  0  0  0  0
 16 17  1  0  0  0  0
 16 38  1  0  0  0  0
 16 39  1  0  0  0  0
 17 18  1  0  0  0  0
 17 40  1  0  0  0  0
 17 41  1  0  0  0  0
 18 19  1  0  0  0  0
 18 42  1  0  0  0  0
 18 43  1  0  0  0  0
 19 20  1  0  0  0  0
 19 44  1  0  0  0  0
 19 45  1  0  0  0  0
 20 21  1  0  0  0  0
 20 46  1  0  0  0  0
 21 47  1  0  0  0  0
 21 48  1  0  0  0  0
 21 49  1  0  0  0  0
M  END
