
 OpenBabel05082414303D

 23 24  0  0  0  0  0  0  0  0999 V2000
    1.2560   -0.0768   -0.6737 C   0  0  0  0  0  0  0  0  0  0  0  0
    0.4249   -1.2011   -0.6167 C   0  0  0  0  0  0  0  0  0  0  0  0
   -0.8265   -1.1120   -0.0162 C   0  0  0  0  0  0  0  0  0  0  0  0
   -1.2416    0.0971    0.5316 C   0  0  0  0  0  0  0  0  0  0  0  0
   -0.4000    1.2148    0.4917 C   0  0  0  0  0  0  0  0  0  0  0  0
    0.8660    1.1511   -0.1085 C   0  0  0  0  0  0  0  0  0  0  0  0
    1.7429    2.2884   -0.1701 N   0  0  0  0  0  0  0  0  0  0  0  0
    2.6575    2.2205   -1.2010 N   0  0  0  0  0  0  0  0  0  0  0  0
    3.4560    3.2195   -1.3591 C   0  0  0  0  0  0  0  0  0  0  0  0
    3.5301    4.4419   -0.5296 C   0  0  0  0  0  0  0  0  0  0  0  0
    4.4840    5.3919   -0.8615 N   0  0  0  0  0  0  0  0  0  0  0  0
    2.6556    4.4785    0.4857 C   0  0  0  0  0  0  0  0  0  0  0  0
    2.6123    5.9344    1.6781 Br  0  0  0  0  0  0  0  0  0  0  0  0
    1.6716    3.3690    0.7216 C   0  0  0  0  0  0  0  0  0  0  0  0
    0.8982    3.4552    1.6764 O   0  0  0  0  0  0  0  0  0  0  0  0
    2.2334   -0.1826   -1.1387 H   0  0  0  0  0  0  0  0  0  0  0  0
    0.7602   -2.1445   -1.0392 H   0  0  0  0  0  0  0  0  0  0  0  0
   -1.4780   -1.9808    0.0236 H   0  0  0  0  0  0  0  0  0  0  0  0
   -2.2238    0.1801    0.9901 H   0  0  0  0  0  0  0  0  0  0  0  0
   -0.7837    2.1409    0.9095 H   0  0  0  0  0  0  0  0  0  0  0  0
    4.1715    3.1755   -2.1977 H   0  0  0  0  0  0  0  0  0  0  0  0
    4.6377    5.5001   -1.8617 H   0  0  0  0  0  0  0  0  0  0  0  0
    4.3299    6.2867   -0.3957 H   0  0  0  0  0  0  0  0  0  0  0  0
  1  2  1  0  0  0  0
  1  6  2  0  0  0  0
  1 16  1  0  0  0  0
  2  3  2  0  0  0  0
  2 17  1  0  0  0  0
  3  4  1  0  0  0  0
  3 18  1  0  0  0  0
  4  5  2  0  0  0  0
  4 19  1  0  0  0  0
  5  6  1  0  0  0  0
  5 20  1  0  0  0  0
  6  7  1  0  0  0  0
  7  8  1  0  0  0  0
  7 14  1  0  0  0  0
  8  9  2  0  0  0  0
  9 10  1  0  0  0  0
  9 21  1  0  0  0  0
 10 11  1  0  0  0  0
 10 12  2  0  0  0  0
 11 22  1  0  0  0  0
 11 23  1  0  0  0  0
 12 13  1  0  0  0  0
 12 14  1  0  0  0  0
 14 15  2  0  0  0  0
M  END
