
 OpenBabel05082414303D

 35 37  0  0  0  0  0  0  0  0999 V2000
    1.0527    0.2576    0.1729 O   0  0  0  0  0  0  0  0  0  0  0  0
    2.2781    0.1355    0.1421 C   0  0  0  0  0  0  0  0  0  0  0  0
    3.0487    1.2731    0.1471 N   0  0  0  0  0  0  0  0  0  0  0  0
    4.3990    1.2501    0.1306 C   0  0  0  0  0  0  0  0  0  0  0  0
    5.2832    2.4429    0.1348 C   0  0  0  0  0  0  0  0  0  0  0  0
    6.6297    1.8190   -0.2661 C   0  0  0  0  0  0  0  0  0  0  0  0
    6.5431    0.3250    0.0864 C   0  0  0  0  0  0  0  0  0  0  0  0
    5.0766    0.1095    0.1047 C   0  0  0  0  0  0  0  0  0  0  0  0
    4.3640   -1.1693    0.0691 C   0  0  0  0  0  0  0  0  0  0  0  0
    5.0111   -2.2123    0.0166 O   0  0  0  0  0  0  0  0  0  0  0  0
    2.9679   -1.0800    0.0832 N   0  0  0  0  0  0  0  0  0  0  0  0
    2.2060   -2.3375   -0.0344 C   0  0  0  0  0  0  0  0  0  0  0  0
    1.3546   -2.3663   -1.3171 C   0  0  0  0  0  0  0  0  0  0  0  0
    0.5801   -3.6713   -1.4597 C   0  0  0  0  0  0  0  0  0  0  0  0
   -0.2646   -3.9525   -0.2217 C   0  0  0  0  0  0  0  0  0  0  0  0
    0.5905   -3.9719    1.0424 C   0  0  0  0  0  0  0  0  0  0  0  0
    1.3713   -2.6668    1.2172 C   0  0  0  0  0  0  0  0  0  0  0  0
    2.5381    2.1481    0.1615 H   0  0  0  0  0  0  0  0  0  0  0  0
    5.3328    2.8834    1.1361 H   0  0  0  0  0  0  0  0  0  0  0  0
    4.9745    3.2089   -0.5826 H   0  0  0  0  0  0  0  0  0  0  0  0
    7.4748    2.3110    0.2260 H   0  0  0  0  0  0  0  0  0  0  0  0
    6.7764    1.9310   -1.3491 H   0  0  0  0  0  0  0  0  0  0  0  0
    6.9725    0.1280    1.0744 H   0  0  0  0  0  0  0  0  0  0  0  0
    7.0578   -0.2871   -0.6598 H   0  0  0  0  0  0  0  0  0  0  0  0
    2.9258   -3.1606   -0.1337 H   0  0  0  0  0  0  0  0  0  0  0  0
    2.0006   -2.2242   -2.1915 H   0  0  0  0  0  0  0  0  0  0  0  0
    0.6346   -1.5416   -1.3292 H   0  0  0  0  0  0  0  0  0  0  0  0
    1.2809   -4.4981   -1.6253 H   0  0  0  0  0  0  0  0  0  0  0  0
   -0.0657   -3.6163   -2.3433 H   0  0  0  0  0  0  0  0  0  0  0  0
   -0.7782   -4.9133   -0.3380 H   0  0  0  0  0  0  0  0  0  0  0  0
   -1.0413   -3.1835   -0.1256 H   0  0  0  0  0  0  0  0  0  0  0  0
    1.2909   -4.8152    0.9943 H   0  0  0  0  0  0  0  0  0  0  0  0
   -0.0493   -4.1398    1.9162 H   0  0  0  0  0  0  0  0  0  0  0  0
    2.0294   -2.7531    2.0908 H   0  0  0  0  0  0  0  0  0  0  0  0
    0.6625   -1.8627    1.4423 H   0  0  0  0  0  0  0  0  0  0  0  0
  1  2  2  0  0  0  0
  2  3  1  0  0  0  0
  2 11  1  0  0  0  0
  3  4  1  0  0  0  0
  3 18  1  0  0  0  0
  4  5  1  0  0  0  0
  4  8  2  0  0  0  0
  5  6  1  0  0  0  0
  5 19  1  0  0  0  0
  5 20  1  0  0  0  0
  6  7  1  0  0  0  0
  6 21  1  0  0  0  0
  6 22  1  0  0  0  0
  7  8  1  0  0  0  0
  7 23  1  0  0  0  0
  7 24  1  0  0  0  0
  8  9  1  0  0  0  0
  9 10  2  0  0  0  0
  9 11  1  0  0  0  0
 11 12  1  0  0  0  0
 12 13  1  0  0  0  0
 12 17  1  0  0  0  0
 12 25  1  0  0  0  0
 13 14  1  0  0  0  0
 13 26  1  0  0  0  0
 13 27  1  0  0  0  0
 14 15  1  0  0  0  0
 14 28  1  0  0  0  0
 14 29  1  0  0  0  0
 15 16  1  0  0  0  0
 15 30  1  0  0  0  0
 15 31  1  0  0  0  0
 16 17  1  0  0  0  0
 16 32  1  0  0  0  0
 16 33  1  0  0  0  0
 17 34  1  0  0  0  0
 17 35  1  0  0  0  0
M  END
